<?xml version="1.0" encoding="iso-8859-1"?>

<configuration xmlns:xsi="http://www.w3.org/2001/XMLSchema-instance" xsi:noNamespaceSchemaLocation="http://sumo.sf.net/xsd/sumoConfiguration.xsd">

    <input>
        <net-file value="new-rampway.net.xml"/>
        <route-files value="freeway.rou.xml"/>

    </input>
    <processing>
        <collision.action value="warn"/>
        <collision.stoptime value="10"/>
    </processing>
     <output>
        <fcd-output value="fcd_o73--2024-5-5(608).out.xml"/>
        <emission-output value="emissions--2024-5-5(608).xml" />
    </output>
    <time>
        <begin value="0"/>
        <end value="5000"/>
        <step-length value="0.01"/>
    </time>

    <gui_only>
        <start value="true"/>
        <gui-settings-file value="freeway.gui.xml"/>

    </gui_only>

</configuration>
