<?xml version="1.0" encoding="UTF-8"?>

<!-- generated on 2023-10-13 21:37:05 by Eclipse SUMO netedit Version 1.14.1
<configuration xmlns:xsi="http://www.w3.org/2001/XMLSchema-instance" xsi:noNamespaceSchemaLocation="http://sumo.dlr.de/xsd/netconvertConfiguration.xsd">

    <input>
        <sumo-net-file value="D:\rl-ramp\cfg\new-rampway.net.xml"/>
    </input>

    <output>
        <output-file value="D:\rl-ramp\cfg\new-rampway.net.xml"/>
    </output>

    <processing>
        <geometry.min-radius.fix.railways value="false"/>
        <geometry.max-grade.fix value="false"/>
        <offset.disable-normalization value="true"/>
        <lefthand value="false"/>
    </processing>

    <junctions>
        <no-turnarounds value="true"/>
        <junctions.corner-detail value="5"/>
        <junctions.limit-turn-speed value="5.5"/>
        <rectangular-lane-cut value="false"/>
    </junctions>

    <pedestrian>
        <walkingareas value="false"/>
    </pedestrian>

</configuration>
-->

<net version="1.9" junctionCornerDetail="5" limitTurnSpeed="5.50" xmlns:xsi="http://www.w3.org/2001/XMLSchema-instance" xsi:noNamespaceSchemaLocation="http://sumo.dlr.de/xsd/net_file.xsd">

    <location netOffset="0.00,0.00" convBoundary="1400.00,-400.00,3750.00,0.00" origBoundary="-10000000000.00,-10000000000.00,10000000000.00,10000000000.00" projParameter="!"/>

    <edge id=":J1_0" function="internal">
        <lane id=":J1_0_0" index="0" speed="8.37" length="3.90" shape="2389.23,-9.10 2390.20,-8.48 2390.93,-8.16 2391.72,-8.02 2392.87,-8.00"/>
    </edge>
    <edge id=":J1_1" function="internal">
        <lane id=":J1_1_0" index="0" speed="13.89" length="3.97" shape="2388.90,-4.80 2392.87,-4.80"/>
        <lane id=":J1_1_1" index="1" speed="13.89" length="3.97" shape="2388.90,-1.60 2392.87,-1.60"/>
    </edge>
    <edge id=":J3_0" function="internal">
        <lane id=":J3_0_0" index="0" speed="13.89" length="8.00" shape="2746.00,-4.80 2754.00,-4.80"/>
        <lane id=":J3_0_1" index="1" speed="13.89" length="8.00" shape="2746.00,-1.60 2754.00,-1.60"/>
    </edge>

    <edge id="E0" from="J0" to="J1" priority="-1" length="1000.00">
        <lane id="E0_0" index="0" speed="13.89" length="1000.00" shape="1400.00,-4.80 2388.90,-4.80"/>
        <lane id="E0_1" index="1" speed="13.89" length="1000.00" shape="1400.00,-1.60 2388.90,-1.60"/>
    </edge>
    <edge id="E1" from="J1" to="J3" priority="-1">
        <lane id="E1_0" index="0" speed="13.89" length="353.13" shape="2392.87,-8.00 2746.00,-8.00"/>
        <lane id="E1_1" index="1" speed="13.89" length="353.13" shape="2392.87,-4.80 2746.00,-4.80"/>
        <lane id="E1_2" index="2" speed="13.89" length="353.13" shape="2392.87,-1.60 2746.00,-1.60"/>
    </edge>
    <edge id="E2" from="J3" to="J2" priority="-1">
        <lane id="E2_0" index="0" speed="13.89" length="996.00" shape="2754.00,-4.80 3750.00,-4.80"/>
        <lane id="E2_1" index="1" speed="13.89" length="996.00" shape="2754.00,-1.60 3750.00,-1.60"/>
    </edge>
    <edge id="E3" from="J4" to="J1" priority="-1" length="700.00">
        <lane id="E3_0" index="0" speed="13.89" length="700.00" shape="1800.89,-401.33 2389.23,-9.10"/>
    </edge>

    <junction id="J0" type="dead_end" x="1400.00" y="0.00" incLanes="" intLanes="" shape="1400.00,0.00 1400.00,-6.40"/>
    <junction id="J1" type="priority" x="2400.00" y="0.00" incLanes="E3_0 E0_0 E0_1" intLanes=":J1_0_0 :J1_1_0 :J1_1_1" shape="2392.87,0.00 2392.87,-9.60 2391.78,-9.64 2391.40,-9.72 2391.05,-9.86 2390.64,-10.09 2390.12,-10.43 2388.35,-7.77 2389.32,-7.01 2389.51,-6.74 2389.51,-6.55 2389.30,-6.44 2388.90,-6.40 2388.90,0.00">
        <request index="0" response="000" foes="000" cont="0"/>
        <request index="1" response="000" foes="000" cont="0"/>
        <request index="2" response="000" foes="000" cont="0"/>
    </junction>
    <junction id="J2" type="dead_end" x="3750.00" y="0.00" incLanes="E2_0 E2_1" intLanes="" shape="3750.00,-6.40 3750.00,0.00"/>
    <junction id="J3" type="priority" x="2750.00" y="0.00" incLanes="E1_0 E1_1 E1_2" intLanes=":J3_0_0 :J3_0_1" shape="2754.00,0.00 2754.00,-6.40 2750.97,-7.23 2749.03,-8.77 2747.79,-9.36 2746.00,-9.60 2746.00,0.00">
        <request index="0" response="00" foes="00" cont="0"/>
        <request index="1" response="00" foes="00" cont="0"/>
    </junction>
    <junction id="J4" type="dead_end" x="1800.00" y="-400.00" incLanes="" intLanes="" shape="1600.00,-95.56 2213.18,-98.41" customShape="1"/>

    <connection from="E0" to="E1" fromLane="0" toLane="1" via=":J1_1_0" dir="s" state="M"/>
    <connection from="E0" to="E1" fromLane="1" toLane="2" via=":J1_1_1" dir="s" state="M"/>
    <connection from="E1" to="E2" fromLane="1" toLane="0" via=":J3_0_0" dir="s" state="M"/>
    <connection from="E1" to="E2" fromLane="2" toLane="1" via=":J3_0_1" dir="s" state="M"/>
    <connection from="E3" to="E1" fromLane="0" toLane="0" via=":J1_0_0" dir="s" state="M"/>

    <connection from=":J1_0" to="E1" fromLane="0" toLane="0" dir="s" state="M"/>
    <connection from=":J1_1" to="E1" fromLane="0" toLane="1" dir="s" state="M"/>
    <connection from=":J1_1" to="E1" fromLane="1" toLane="2" dir="s" state="M"/>
    <connection from=":J3_0" to="E2" fromLane="0" toLane="0" dir="s" state="M"/>
    <connection from=":J3_0" to="E2" fromLane="1" toLane="1" dir="s" state="M"/>

</net>
