<?xml version="1.0" encoding="UTF-8"?>

<!-- generated on 2023-06-13 11:10:55 by Eclipse SUMO netedit Version 1.14.1
<configuration xmlns:xsi="http://www.w3.org/2001/XMLSchema-instance" xsi:noNamespaceSchemaLocation="http://sumo.dlr.de/xsd/netconvertConfiguration.xsd">

    <input>
        <sumo-net-file value="D:\rl-ramp\cfg\rampway.net.xml"/>
    </input>

    <output>
        <output-file value="D:\rl-ramp\cfg\rampway.net.xml"/>
    </output>

    <processing>
        <geometry.min-radius.fix.railways value="false"/>
        <geometry.max-grade.fix value="false"/>
        <offset.disable-normalization value="true"/>
        <lefthand value="false"/>
    </processing>

    <junctions>
        <no-turnarounds value="true"/>
        <junctions.corner-detail value="5"/>
        <junctions.limit-turn-speed value="5.5"/>
        <rectangular-lane-cut value="false"/>
    </junctions>

    <pedestrian>
        <walkingareas value="false"/>
    </pedestrian>

</configuration>
-->

<net version="1.9" junctionCornerDetail="5" limitTurnSpeed="5.50" xmlns:xsi="http://www.w3.org/2001/XMLSchema-instance" xsi:noNamespaceSchemaLocation="http://sumo.dlr.de/xsd/net_file.xsd">

    <location netOffset="0.00,0.00" convBoundary="0.00,-600.00,13000.00,9.00" origBoundary="-10000000000.00,-10000000000.00,10000000000.00,10000000000.00" projParameter="!"/>

    <edge id=":J1_0" function="internal">
        <lane id=":J1_0_0" index="0" speed="7.86" length="3.98" shape="2386.11,-12.42 2387.06,-11.74 2387.79,-11.38 2388.60,-11.23 2389.77,-11.20"/>
    </edge>
    <edge id=":J1_1" function="internal">
        <lane id=":J1_1_0" index="0" disallow="passenger" speed="13.89" length="4.07" shape="2385.70,-8.00 2389.77,-8.00"/>
        <lane id=":J1_1_1" index="1" speed="13.89" length="4.07" shape="2385.70,-4.80 2389.77,-4.80"/>
        <lane id=":J1_1_2" index="2" speed="13.89" length="4.07" shape="2385.70,-1.60 2389.77,-1.60"/>
    </edge>
    <edge id=":J2_0" function="internal">
        <lane id=":J2_0_0" index="0" disallow="passenger" speed="13.89" length="0.10" shape="3750.00,-8.00 3750.00,-8.00"/>
        <lane id=":J2_0_1" index="1" speed="13.89" length="0.10" shape="3750.00,-4.80 3750.00,-4.80"/>
        <lane id=":J2_0_2" index="2" speed="13.89" length="0.10" shape="3750.00,-1.60 3750.00,-1.60"/>
    </edge>
    <edge id=":J3_0" function="internal">
        <lane id=":J3_0_0" index="0" disallow="passenger" speed="13.89" length="8.00" shape="2746.00,-8.00 2754.00,-8.00"/>
        <lane id=":J3_0_1" index="1" speed="13.89" length="8.00" shape="2746.00,-4.80 2754.00,-4.80"/>
        <lane id=":J3_0_2" index="2" speed="13.89" length="8.00" shape="2746.00,-1.60 2754.00,-1.60"/>
    </edge>
    <edge id=":J5_0" function="internal">
        <lane id=":J5_0_0" index="0" speed="13.89" length="0.30" shape="11999.87,-8.00 12000.20,-8.00"/>
        <lane id=":J5_0_1" index="1" speed="13.89" length="0.30" shape="11999.87,-4.80 12000.17,-4.80"/>
        <lane id=":J5_0_2" index="2" speed="13.89" length="0.30" shape="11999.87,-1.60 12000.14,-1.60"/>
    </edge>

    <edge id="E0" from="J0" to="J1" priority="-1" length="2400.00">
        <lane id="E0_0" index="0" disallow="passenger" speed="13.89" length="2400.00" shape="0.00,-8.00 2385.70,-8.00"/>
        <lane id="E0_1" index="1" speed="13.89" length="2400.00" shape="0.00,-4.80 2385.70,-4.80"/>
        <lane id="E0_2" index="2" speed="13.89" length="2400.00" shape="0.00,-1.60 2385.70,-1.60"/>
    </edge>
    <edge id="E1" from="J1" to="J3" priority="-1">
        <lane id="E1_0" index="0" speed="13.89" length="356.23" shape="2389.77,-11.20 2746.00,-11.20"/>
        <lane id="E1_1" index="1" speed="13.89" length="356.23" shape="2389.77,-8.00 2746.00,-8.00"/>
        <lane id="E1_2" index="2" speed="13.89" length="356.23" shape="2389.77,-4.80 2746.00,-4.80"/>
        <lane id="E1_3" index="3" speed="13.89" length="356.23" shape="2389.77,-1.60 2746.00,-1.60"/>
    </edge>
    <edge id="E2" from="J3" to="J2" priority="-1">
        <lane id="E2_0" index="0" disallow="passenger" speed="13.89" length="996.00" shape="2754.00,-8.00 3750.00,-8.00"/>
        <lane id="E2_1" index="1" speed="13.89" length="996.00" shape="2754.00,-4.80 3750.00,-4.80"/>
        <lane id="E2_2" index="2" speed="13.89" length="996.00" shape="2754.00,-1.60 3750.00,-1.60"/>
    </edge>
    <edge id="E3" from="J4" to="J1" priority="-1" length="700.00">
        <lane id="E3_0" index="0" speed="13.89" length="700.00" shape="1600.96,-601.28 2386.11,-12.42"/>
    </edge>
    <edge id="E4" from="J2" to="J5" priority="-1">
        <lane id="E4_0" index="0" speed="13.89" length="8249.87" shape="3750.00,-8.00 11999.87,-8.00"/>
        <lane id="E4_1" index="1" speed="13.89" length="8249.87" shape="3750.00,-4.80 11999.87,-4.80"/>
        <lane id="E4_2" index="2" speed="13.89" length="8249.87" shape="3750.00,-1.60 11999.87,-1.60"/>
    </edge>
    <edge id="E5" from="J5" to="J6" priority="-1">
        <lane id="E5_0" index="0" speed="13.89" length="999.91" shape="12000.20,-8.00 13000.07,1.00"/>
        <lane id="E5_1" index="1" speed="13.89" length="999.91" shape="12000.17,-4.80 13000.04,4.20"/>
        <lane id="E5_2" index="2" speed="13.89" length="999.91" shape="12000.14,-1.60 13000.01,7.40"/>
    </edge>

    <junction id="J0" type="dead_end" x="0.00" y="0.00" incLanes="" intLanes="" shape="0.00,0.00 0.00,-9.60"/>
    <junction id="J1" type="priority" x="2400.00" y="0.00" incLanes="E3_0 E0_0 E0_1 E0_2" intLanes=":J1_0_0 :J1_1_0 :J1_1_1 :J1_1_2" shape="2389.77,0.00 2389.77,-12.80 2388.69,-12.84 2388.31,-12.93 2387.96,-13.09 2387.56,-13.34 2387.07,-13.70 2385.15,-11.14 2386.12,-10.28 2386.31,-9.99 2386.31,-9.77 2386.10,-9.64 2385.70,-9.60 2385.70,0.00">
        <request index="0" response="0000" foes="0000" cont="0"/>
        <request index="1" response="0000" foes="0000" cont="0"/>
        <request index="2" response="0000" foes="0000" cont="0"/>
        <request index="3" response="0000" foes="0000" cont="0"/>
    </junction>
    <junction id="J2" type="priority" x="3750.00" y="0.00" incLanes="E2_0 E2_1 E2_2" intLanes=":J2_0_0 :J2_0_1 :J2_0_2" shape="3750.00,0.00 3750.00,-9.60 3750.00,0.00">
        <request index="0" response="000" foes="000" cont="0"/>
        <request index="1" response="000" foes="000" cont="0"/>
        <request index="2" response="000" foes="000" cont="0"/>
    </junction>
    <junction id="J3" type="priority" x="2750.00" y="0.00" incLanes="E1_0 E1_1 E1_2 E1_3" intLanes=":J3_0_0 :J3_0_1 :J3_0_2" shape="2754.00,0.00 2754.00,-9.60 2750.97,-10.43 2749.03,-11.97 2747.79,-12.56 2746.00,-12.80 2746.00,0.00">
        <request index="0" response="000" foes="000" cont="0"/>
        <request index="1" response="000" foes="000" cont="0"/>
        <request index="2" response="000" foes="000" cont="0"/>
    </junction>
    <junction id="J4" type="dead_end" x="1600.00" y="-600.00" incLanes="" intLanes="" shape="1600.00,-95.56 2213.18,-98.41" customShape="1"/>
    <junction id="J5" type="priority" x="12000.00" y="0.00" incLanes="E4_0 E4_1 E4_2" intLanes=":J5_0_0 :J5_0_1 :J5_0_2" shape="12000.13,0.00 12000.21,-9.60 11999.87,-9.60 11999.87,0.00">
        <request index="0" response="000" foes="000" cont="0"/>
        <request index="1" response="000" foes="000" cont="0"/>
        <request index="2" response="000" foes="000" cont="0"/>
    </junction>
    <junction id="J6" type="dead_end" x="13000.00" y="9.00" incLanes="E5_0 E5_1 E5_2" intLanes="" shape="13000.09,-0.60 13000.00,9.00"/>

    <connection from="E0" to="E1" fromLane="0" toLane="1" via=":J1_1_0" dir="s" state="M"/>
    <connection from="E0" to="E1" fromLane="1" toLane="2" via=":J1_1_1" dir="s" state="M"/>
    <connection from="E0" to="E1" fromLane="2" toLane="3" via=":J1_1_2" dir="s" state="M"/>
    <connection from="E1" to="E2" fromLane="1" toLane="0" via=":J3_0_0" dir="s" state="M"/>
    <connection from="E1" to="E2" fromLane="2" toLane="1" via=":J3_0_1" dir="s" state="M"/>
    <connection from="E1" to="E2" fromLane="3" toLane="2" via=":J3_0_2" dir="s" state="M"/>
    <connection from="E2" to="E4" fromLane="0" toLane="0" via=":J2_0_0" dir="s" state="M"/>
    <connection from="E2" to="E4" fromLane="1" toLane="1" via=":J2_0_1" dir="s" state="M"/>
    <connection from="E2" to="E4" fromLane="2" toLane="2" via=":J2_0_2" dir="s" state="M"/>
    <connection from="E3" to="E1" fromLane="0" toLane="0" via=":J1_0_0" dir="s" state="M"/>
    <connection from="E4" to="E5" fromLane="0" toLane="0" via=":J5_0_0" dir="s" state="M"/>
    <connection from="E4" to="E5" fromLane="1" toLane="1" via=":J5_0_1" dir="s" state="M"/>
    <connection from="E4" to="E5" fromLane="2" toLane="2" via=":J5_0_2" dir="s" state="M"/>

    <connection from=":J1_0" to="E1" fromLane="0" toLane="0" dir="s" state="M"/>
    <connection from=":J1_1" to="E1" fromLane="0" toLane="1" dir="s" state="M"/>
    <connection from=":J1_1" to="E1" fromLane="1" toLane="2" dir="s" state="M"/>
    <connection from=":J1_1" to="E1" fromLane="2" toLane="3" dir="s" state="M"/>
    <connection from=":J2_0" to="E4" fromLane="0" toLane="0" dir="s" state="M"/>
    <connection from=":J2_0" to="E4" fromLane="1" toLane="1" dir="s" state="M"/>
    <connection from=":J2_0" to="E4" fromLane="2" toLane="2" dir="s" state="M"/>
    <connection from=":J3_0" to="E2" fromLane="0" toLane="0" dir="s" state="M"/>
    <connection from=":J3_0" to="E2" fromLane="1" toLane="1" dir="s" state="M"/>
    <connection from=":J3_0" to="E2" fromLane="2" toLane="2" dir="s" state="M"/>
    <connection from=":J5_0" to="E5" fromLane="0" toLane="0" dir="s" state="M"/>
    <connection from=":J5_0" to="E5" fromLane="1" toLane="1" dir="s" state="M"/>
    <connection from=":J5_0" to="E5" fromLane="2" toLane="2" dir="s" state="M"/>

</net>
